29

C          1.13631        0.07228        0.37133
C          2.23084        0.13505       -0.39728
C          3.09350       -1.03425       -0.64772
C          2.85484       -1.84029       -1.77380
S          1.57057       -1.54588       -2.99190
C          3.66222       -2.95158       -2.00799
C          4.69447       -3.33945       -1.12614
C          5.47461       -4.59441       -1.47712
N          6.87350       -4.29281       -1.77555
C          4.93044       -2.56471        0.03638
C          5.96666       -3.00554        1.06253
S          7.44729       -1.95992        1.10730
C          4.14335       -1.39242        0.24143
C          4.39322       -0.53933        1.43830
O          4.38532       -0.96757        2.57837
O          4.66676        0.74732        1.13021
H          0.51389        0.95168        0.51525
H          0.82491       -0.84136        0.87074
H          2.49958        1.06063       -0.89777
H          0.84810       -0.66143       -2.29126
H          3.47723       -3.56916       -2.88652
H          5.03966       -5.08570       -2.35528
H          5.40201       -5.31949       -0.66143
H          6.91592       -3.71956       -2.61830
H          7.35412       -5.16157       -2.01133
H          6.31277       -4.02735        0.87814
H          5.50671       -3.06091        2.05427
H          8.01785       -2.47468        0.00967
H          4.66544        0.95015        0.17784
